/*--------------------------------*- C++ -*----------------------------------*\
| =========                 |                                                 |
| \\      /  F ield         | OpenFOAM: The Open Source CFD Toolbox           |
|  \\    /   O peration     | Version:  2206                                  |
|   \\  /    A nd           | Website:  www.openfoam.com                      |
|    \\/     M anipulation  |                                                 |
\*---------------------------------------------------------------------------*/
FoamFile
{
    version     2.0;
    format      ascii;
    arch        "LSB;label=32;scalar=64";
    class       polyBoundaryMesh;
    location    "constant/polyMesh";
    object      boundary;
}
// * * * * * * * * * * * * * * * * * * * * * * * * * * * * * * * * * * * * * //


5
(
    frontAndBack
    {
        type            empty;
        physicalType    empty;
        nFaces          54180;
        startFace       40345;
    }

    outlet
    {
        type            patch;
        physicalType    patch;
        nFaces          20;
        startFace       94525;
    }

    walls
    {
        type            wall;
        physicalType    wall;
        nFaces          80;
        startFace       94545;
    }

    inlet
    {
        type            patch;
        physicalType    patch;
        nFaces          20;
        startFace       94625;
    }

    airfoil
    {
        type            wall;
        physicalType    wall;
        nFaces          460;
        startFace       94645;
    }

)


// ************************************************************************* //
